
**** 03/28/16 13:17:36 ***** PSpice 16.6.0 (October 2012) ***** ID# 0 ********

 ** Profile: "SCHEMATIC1-3phase power"  [ H:\WinterIsComing\Spring2016\Power Systems\project3\3phase circuit-pspicefiles\schematic1\3


 ****     CIRCUIT DESCRIPTION


******************************************************************************




** Creating circuit file "3phase power.cir" 
** WARNING: THIS AUTOMATICALLY GENERATED FILE MAY BE OVERWRITTEN BY SUBSEQUENT SIMULATIONS

*Libraries: 
* Profile Libraries :
* Local Libraries :
* From [PSPICE NETLIST] section of H:\cdssetup\OrCAD_PSpice/16.6.0/PSpice.ini file:
.lib "nom.lib" 

*Analysis directives: 
.TRAN  0 0.575 0.5 0.00001 
.OPTIONS ADVCONV
.PROBE64 V(alias(*)) I(alias(*)) W(alias(*)) D(alias(*)) NOISE(alias(*)) 
.INC "..\SCHEMATIC1.net" 



**** INCLUDING SCHEMATIC1.net ****
* source 3PHASE CIRCUIT
V_VSa         N00214 0  
+SIN 0 -99 -99 0 0 0
V_VSc         N00271 0  
+SIN 0 -99 -99 0 0 +120deg
V_VSb         N00812 0  
+SIN 0 -99 -99 0 0 -120deg
L_LSynchB         N00812 N07164  4.1484mH  
L_LSynchA         N00214 N07160  4.1484mH  
L_LSynchC         N00271 N07211  4.1484mH  
R_RLine         N04779 N01314  1 TC=0,0 
L_LLine         N01314 N05645  10mH  
C_half_CLine         N07258 N04779  50uF  TC=0,0 
C_half_CLine2         N07258 N05645  50uF  TC=0,0 
D_D9         N07258 N07164 D1N1190 
D_D10         N07211 N04779 D1N1190 
D_D11         N07258 N07211 D1N1190 
D_D12         N07164 N04779 D1N1190 
D_D13         N07160 N04779 D1N1190 
D_D14         N07258 N07160 D1N1190 
X_S1    N08900 0 N08922 N05645 SCHEMATIC1_S1 
V_V1         N08900 0  
+PULSE 0 1 1u 1u 1u 8.33ms 16.66ms
D_D15         N05645 N08922 D1N1190 
V_V2         N10017 0  
+PULSE 0 1 8.33ms 1u 1u 8.33ms 16.66ms
X_S2    N10017 0 N05645 N10087 SCHEMATIC1_S2 
D_D16         N10087 N05645 D1N1190 
X_S4    N11336 0 N05645 N10087 SCHEMATIC1_S4 
D_D17         N05645 N08922 D1N1190 
V_V4         N11336 0  
+PULSE 0 1 -99 1u 1u -99 -99
V_V3         N11172 0  
+PULSE 0 1 5.55ms 1u 1u 8.33ms 16.66ms
X_S3    N11172 0 N08922 N05645 SCHEMATIC1_S3 
D_D18         N10087 N05645 D1N1190 
D_D20         N10087 N05645 D1N1190 
X_S6    N12018 0 N05645 N10087 SCHEMATIC1_S6 
V_V5         N11854 0  
+PULSE 0 1 -99 1u 1u -99 -99
X_S5    N11854 0 N08922 N05645 SCHEMATIC1_S5 
D_D19         N05645 N08922 D1N1190 
V_V6         N12018 0  
+PULSE 0 1 -99 1u 1u -99 -99
R_RLoadA         0 N05645  5 TC=0,0 
R_RLoadB         N05645 0  5 TC=0,0 
R_RLoadC         0 N05645  5 TC=0,0 

.subckt SCHEMATIC1_S1 1 2 3 4  
S_S1         3 4 1 2 _S1
RS_S1         1 2 1G
.MODEL         _S1 VSWITCH Roff=1e6 Ron=1.0 Voff=0.0V Von=1.0V
.ends SCHEMATIC1_S1

.subckt SCHEMATIC1_S2 1 2 3 4  
S_S2         3 4 1 2 _S2
RS_S2         1 2 1G
.MODEL         _S2 VSWITCH Roff=1e6 Ron=1.0 Voff=0.0V Von=1.0V
.ends SCHEMATIC1_S2

.subckt SCHEMATIC1_S4 1 2 3 4  
S_S4         3 4 1 2 _S4
RS_S4         1 2 1G
.MODEL         _S4 VSWITCH Roff=1e6 Ron=1.0 Voff=0.0V Von=1.0V
.ends SCHEMATIC1_S4

.subckt SCHEMATIC1_S3 1 2 3 4  
S_S3         3 4 1 2 _S3
RS_S3         1 2 1G
.MODEL         _S3 VSWITCH Roff=1e6 Ron=1.0 Voff=0.0V Von=1.0V
.ends SCHEMATIC1_S3

.subckt SCHEMATIC1_S6 1 2 3 4  
S_S6         3 4 1 2 _S6
RS_S6         1 2 1G
.MODEL         _S6 VSWITCH Roff=1e6 Ron=1.0 Voff=0.0V Von=1.0V
.ends SCHEMATIC1_S6

.subckt SCHEMATIC1_S5 1 2 3 4  
S_S5         3 4 1 2 _S5
RS_S5         1 2 1G
.MODEL         _S5 VSWITCH Roff=1e6 Ron=1.0 Voff=0.0V Von=1.0V
.ends SCHEMATIC1_S5

**** RESUMING "3phase power.cir" ****
.END

**** 03/28/16 13:17:36 ***** PSpice 16.6.0 (October 2012) ***** ID# 0 ********

 ** Profile: "SCHEMATIC1-3phase power"  [ H:\WinterIsComing\Spring2016\Power Systems\project3\3phase circuit-pspicefiles\schematic1\3


 ****     Diode MODEL PARAMETERS


******************************************************************************




               D1N1190         
          IS    1.331000E-06 
           N    2.108        
         ISR   40.740000E-06 
         IKF   11.73         
          BV  400            
         IBV  100.000000E-06 
          RS    1.029000E-03 
          TT    5.000000E-09 
         CJO    1.000000E-12 
          VJ     .7          


**** 03/28/16 13:17:36 ***** PSpice 16.6.0 (October 2012) ***** ID# 0 ********

 ** Profile: "SCHEMATIC1-3phase power"  [ H:\WinterIsComing\Spring2016\Power Systems\project3\3phase circuit-pspicefiles\schematic1\3


 ****     Voltage Controlled Switch MODEL PARAMETERS


******************************************************************************




               X_S1._S1        X_S2._S2        X_S4._S4        X_S3._S3        
         RON    1               1               1               1            
        ROFF    1.000000E+06    1.000000E+06    1.000000E+06    1.000000E+06 
         VON    1               1               1               1            
        VOFF    0               0               0               0            


               X_S6._S6        X_S5._S5        
         RON    1               1            
        ROFF    1.000000E+06    1.000000E+06 
         VON    1               1            
        VOFF    0               0            


ERROR(ORPSIM-15667): Pulse Delay must be >= 0 for V_V4.

WARNING(ORPSIM-15451): Pulse Width must be >= 0 for V_V4. Running simulation with pulse width set as 0

ERROR(ORPSIM-15667): Pulse Delay must be >= 0 for V_V5.

WARNING(ORPSIM-15451): Pulse Width must be >= 0 for V_V5. Running simulation with pulse width set as 0

ERROR(ORPSIM-15667): Pulse Delay must be >= 0 for V_V6.

WARNING(ORPSIM-15451): Pulse Width must be >= 0 for V_V6. Running simulation with pulse width set as 0


          JOB ABORTED

**** 03/28/16 13:17:36 ***** PSpice 16.6.0 (October 2012) ***** ID# 0 ********

 ** Profile: "SCHEMATIC1-3phase power"  [ H:\WinterIsComing\Spring2016\Power Systems\project3\3phase circuit-pspicefiles\schematic1\3


 ****     JOB STATISTICS SUMMARY


******************************************************************************



  Total job time                    =         .38
